data_image0
_chemical_formula_structural       GeSe
_chemical_formula_sum              "Ge1 Se1"
_cell_length_a       3.6662159365180575
_cell_length_b       3.666215936518057
_cell_length_c       16.44526963538648
_cell_angle_alpha    90.0
_cell_angle_beta     90.0
_cell_angle_gamma    120.00000000000001

_space_group_name_H-M_alt    "P 1"
_space_group_IT_number       1

loop_
  _space_group_symop_operation_xyz
  'x, y, z'

loop_
  _atom_site_type_symbol
  _atom_site_label
  _atom_site_symmetry_multiplicity
  _atom_site_fract_x
  _atom_site_fract_y
  _atom_site_fract_z
  _atom_site_occupancy
  Ge  Ge1       1.0  0.6666666666666665  0.33333333333333337 0.4559899989600885 1.0000
  Se  Se1       1.0  0.3333333333333333  0.6666666666666667  0.5440007014784115    1.0000
