data_image0
_chemical_formula_structural       SnSe
_chemical_formula_sum              "Sn1 Se1"
_cell_length_a       3.9068095295297938
_cell_length_b       3.9068095295297938
_cell_length_c       16.555030524987444
_cell_angle_alpha    90.0
_cell_angle_beta     90.0
_cell_angle_gamma    120.00000000000001

_space_group_name_H-M_alt    "P 1"
_space_group_IT_number       1

loop_
  _space_group_symop_operation_xyz
  'x, y, z'

loop_
  _atom_site_type_symbol
  _atom_site_label
  _atom_site_symmetry_multiplicity
  _atom_site_fract_x
  _atom_site_fract_y
  _atom_site_fract_z
  _atom_site_occupancy
  Sn  Sn1       1.0  0.6666666666666665  0.3333333333333333 0.45294205783509306   1.0000
  Se  Se1       1.0  0.33333333333333326  0.6666666666666666  0.5470899173860196    1.0000
