data_image0
_chemical_formula_structural       B2O2
_chemical_formula_sum              "B2  O2"
_cell_length_a       2.44
_cell_length_b       2.44
_cell_length_c       106.0
_cell_angle_alpha    90.0
_cell_angle_beta     90.0
_cell_angle_gamma    120

_space_group_name_H-M_alt    "P 1"
_space_group_IT_number       1

loop_
  _space_group_symop_operation_xyz
  'x, y, z'

loop_
  _atom_site_type_symbol
  _atom_site_label
  _atom_site_symmetry_multiplicity
  _atom_site_fract_x
  _atom_site_fract_y
  _atom_site_fract_z
  _atom_site_occupancy
  B   B1       1.0  0.6666666666666666  0.33333333333333326 0.4779169811320754  1.0000
  B   B2       1.0  0.6666666666666666  0.33333333333333326 0.49461509433962264  1.0000
  O   O1       1.0  0.33333333333333326  0.6666666666666665   0.47253113207547165  1.0000
  O   O2       1.0  0.33333333333333326  0.6666666666666665   0.5  1.0000
