data_image0
_chemical_formula_structural       CoTe2
_chemical_formula_sum              "Co1 Te2"
_cell_length_a       3.6126950916599947
_cell_length_b       3.6126950916599947
_cell_length_c       17.996247432886562
_cell_angle_alpha    90.0
_cell_angle_beta     90.0
_cell_angle_gamma    120.00000000000001

_space_group_name_H-M_alt    "P 1"
_space_group_IT_number       1

loop_
  _space_group_symop_operation_xyz
  'x, y, z'

loop_
  _atom_site_type_symbol
  _atom_site_label
  _atom_site_symmetry_multiplicity
  _atom_site_fract_x
  _atom_site_fract_y
  _atom_site_fract_z
  _atom_site_occupancy
  Co  Co1       1.0  0.0  0.0  0.5000000000000033  1.0000
  Te  Te2       1.0  0.6666666666666666  0.33333333333333337  0.4169230019442746  1.0000
  Te  Te1       1.0  0.6666666666666666  0.33333333333333337  0.5830769980557301  1.0000