data_image0
_chemical_formula_structural       NbSe2
_chemical_formula_sum              "Nb1 Se2"
_cell_length_a       3.4715297364547646
_cell_length_b       3.471529736454764
_cell_length_c       18.355447505506284
_cell_angle_alpha    90.0
_cell_angle_beta     90.0
_cell_angle_gamma    120.0

_space_group_name_H-M_alt    "P 1"
_space_group_IT_number       1

loop_
  _space_group_symop_operation_xyz
  'x, y, z'

loop_
  _atom_site_type_symbol
  _atom_site_label
  _atom_site_symmetry_multiplicity
  _atom_site_fract_x
  _atom_site_fract_y
  _atom_site_fract_z
  _atom_site_occupancy
  Nb  Nb1       1.0  0.0  0.0  0.49999999999991185  1.0000
  Se  Se1       1.0  0.6666666666666666  0.3333333333333333  0.5913264887155484  1.0000
  Se  Se2       1.0  0.6666666666666666  0.3333333333333333  0.4086735112842173  1.0000
