data_image0
_chemical_formula_structural       WSe2
_chemical_formula_sum              "W1 Se2"
_cell_length_a       3.3190066244679373
_cell_length_b       3.3190066244679373
_cell_length_c       18.35855280439282
_cell_angle_alpha    90.0
_cell_angle_beta     90.0
_cell_angle_gamma    120.0

_space_group_name_H-M_alt    "P 1"
_space_group_IT_number       1

loop_
  _space_group_symop_operation_xyz
  'x, y, z'

loop_
  _atom_site_type_symbol
  _atom_site_label
  _atom_site_symmetry_multiplicity
  _atom_site_fract_x
  _atom_site_fract_y
  _atom_site_fract_z
  _atom_site_occupancy
  W   W1        1.0  0.0  0.0  0.5  1.0000
  Se  Se1       1.0  0.6666666666666666  0.3333333333333333  0.591471066379186  1.0000
  Se  Se2       1.0  0.6666666666666666  0.3333333333333333  0.4085289336208138  1.0000
