data_image0
_chemical_formula_structural       In2O2
_chemical_formula_sum              "In2 O2"
_cell_length_a       3.4418533223246914
_cell_length_b       3.4417918714034568
_cell_length_c       20.277747412156973
_cell_angle_alpha    90.0
_cell_angle_beta     90.0
_cell_angle_gamma    120.00394411957862

_space_group_name_H-M_alt    "P 1"
_space_group_IT_number       1

loop_
  _space_group_symop_operation_xyz
  'x, y, z'

loop_
  _atom_site_type_symbol
  _atom_site_label
  _atom_site_symmetry_multiplicity
  _atom_site_fract_x
  _atom_site_fract_y
  _atom_site_fract_z
  _atom_site_occupancy
  In  In1       1.0  0.3334036531670377  0.666798885336032  0.42964383167521053  1.0000
  In  In2       1.0  0.33339905412304016  0.666806523448351  0.5703561037678495  1.0000
  O   O1        1.0  0.6667325938315485  0.3335198326093411  0.39064603066124093  1.0000
  O   O2        1.0  8.885043142687643e-05  0.0001231005069698031  0.6093539305910037  1.0000
