data_image0
_chemical_formula_structural       In2S2
_chemical_formula_sum              "In2 S2"
_cell_length_a       3.919489857535322
_cell_length_b       3.919489857535322
_cell_length_c       20.167425080351443
_cell_angle_alpha    90.0
_cell_angle_beta     90.0
_cell_angle_gamma    120.00000000000001

_space_group_name_H-M_alt    "P 1"
_space_group_IT_number       1

loop_
  _space_group_symop_operation_xyz
  'x, y, z'

loop_
  _atom_site_type_symbol
  _atom_site_label
  _atom_site_symmetry_multiplicity
  _atom_site_fract_x
  _atom_site_fract_y
  _atom_site_fract_z
  _atom_site_occupancy
  In  In1       1.0  0.33339108596204664  0.6668337586406593  0.4301396929286274  1.0000
  In  In2       1.0  0.3334115635776923  0.6667715400627001  0.5698602587675895  1.0000
  S   S1        1.0  0.6666994468098308  0.3333423565004303  0.3718868407899548  1.0000
  S   S2        1.0  1.2170429543864665e-06  5.896800827011682e-05  0.6281131592100451  1.0000
