data_image0
_chemical_formula_structural       Bi4
_chemical_formula_sum              "Bi4"
_cell_length_a       4.574158854309576
_cell_length_b       4.86171928271535
_cell_length_c       17.109978921279286
_cell_angle_alpha    90.0
_cell_angle_beta     90.0
_cell_angle_gamma    90.0

_space_group_name_H-M_alt    "P 1"
_space_group_IT_number       1

loop_
  _space_group_symop_operation_xyz
  'x, y, z'

loop_
  _atom_site_type_symbol
  _atom_site_label
  _atom_site_symmetry_multiplicity
  _atom_site_fract_x
  _atom_site_fract_y
  _atom_site_fract_z
  _atom_site_occupancy
  Bi  Bi1       1.0  0.06946868482351369  0.9327972356370704  0.40402805688869164  1.0000
  Bi  Bi2       1.0  0.06776047825911652  0.008963037155574456  0.5795860174359617  1.0000
  Bi  Bi3       1.0  0.5683337746189717  0.43277439724474637  0.6074505283368332  1.0000
  Bi  Bi4       1.0  0.5685572097975394  0.5088286752778143  0.43189201090211776  1.0000
