data_image0
_chemical_formula_structural       C2S2
_chemical_formula_sum              "C2 S2"
_cell_length_a       4.323
_cell_length_b       2.795
_cell_length_c       105.0
_cell_angle_alpha    90.0
_cell_angle_beta     90.0
_cell_angle_gamma    90.0

_space_group_name_H-M_alt    "P 1"
_space_group_IT_number       1

loop_
  _space_group_symop_operation_xyz
  'x, y, z'

loop_
  _atom_site_type_symbol
  _atom_site_label
  _atom_site_symmetry_multiplicity
  _atom_site_fract_x
  _atom_site_fract_y
  _atom_site_fract_z
  _atom_site_occupancy
  C   C1       1.0  0.02313208420078649  0.03577817531305904  0.4930161904761905  1.0000
  S   S1       1.0  0.28357622021744155  0.03577817531305904  0.5069838095238096  1.0000
  C   C1       1.0  0.5231320842007864  0.535778175313059     0.5046200000000001  1.0000
  S   S1       1.0  0.7835762202174414  0.535778175313059     0.4906514285714286  1.0000
