data_image0
_chemical_formula_structural       Ge2Se2
_chemical_formula_sum              "Ge2 Se2"
_cell_length_a       4.273643931447557
_cell_length_b       3.97348835622612
_cell_length_c       17.10979291
_cell_angle_alpha    90.0
_cell_angle_beta     90.0
_cell_angle_gamma    90.0

_space_group_name_H-M_alt    "P 1"
_space_group_IT_number       1

loop_
  _space_group_symop_operation_xyz
  'x, y, z'

loop_
  _atom_site_type_symbol
  _atom_site_label
  _atom_site_symmetry_multiplicity
  _atom_site_fract_x
  _atom_site_fract_y
  _atom_site_fract_z
  _atom_site_occupancy
  Ge  Ge1       1.0  0.6398025086633157  0.49990381620602015  0.4292537579318754  1.0000
  Ge  Ge2       1.0  0.13969470521517435  0.9999244139317683  0.5707224048994646  1.0000
  Se  Se1       1.0  0.5540590309955279  0.4998981796917686  0.5761251587559891  1.0000
  Se  Se2       1.0  0.05395326502501154  0.9999224720517911  0.423857428561158  1.0000

