data_image0
_chemical_formula_structural       Ge2O2
_chemical_formula_sum              "Ge2 O2"
_cell_length_a       4.665697233930941
_cell_length_b       3.0012743637154973
_cell_length_c       32.15
_cell_angle_alpha    90.0
_cell_angle_beta     90.0
_cell_angle_gamma    89.99999999999999

_space_group_name_H-M_alt    "P 1"
_space_group_IT_number       1

loop_
  _space_group_symop_operation_xyz
  'x, y, z'

loop_
  _atom_site_type_symbol
  _atom_site_label
  _atom_site_symmetry_multiplicity
  _atom_site_fract_x
  _atom_site_fract_y
  _atom_site_fract_z
  _atom_site_occupancy
  Ge  Ge1       1.0  0.01873476606302166  1.2213410645009116e-17  0.5347903920745293  1.0000
  O   O1        1.0  0.2320367313110568  0.500000000000021  0.5101880878028876  1.0000
  Ge  Ge2       1.0  0.5187347660630113  0.500000000000021  0.4652096079254817  1.0000
  O   O2        1.0  0.7320367313110397  1.729695555256389e-17  0.4898119121971202  1.0000
