data_image0
_chemical_formula_structural       Si2O2
_chemical_formula_sum              "Si2 O2"
_cell_length_a       4.527110005017387
_cell_length_b       2.6979128330412725
_cell_length_c       17.10979291
_cell_angle_alpha    90.0
_cell_angle_beta     90.0
_cell_angle_gamma    90.0000

_space_group_name_H-M_alt    "P 1"
_space_group_IT_number       1

loop_
  _space_group_symop_operation_xyz
  'x, y, z'

loop_
  _atom_site_type_symbol
  _atom_site_label
  _atom_site_symmetry_multiplicity
  _atom_site_fract_x
  _atom_site_fract_y
  _atom_site_fract_z
  _atom_site_occupancy
  Si  Si1       1.0  0.23752180611192175  0.9999115694367426  0.5614082177169382  1.0000
  Si  Si2       1.0  0.7375222606238999  0.49991432794652685  0.43859161374539085  1.0000
  O   O1        1.0  0.9560860641497954  0.9999067930947128  0.4835447996816173  1.0000
  O   O2        1.0  0.45608404621591997  0.4999198091238203  0.5164540948010239  1.0000
