data_image0
_chemical_formula_structural       Si2Te2
_chemical_formula_sum              "Si2 Te2"
_cell_length_a       4.28553716021913
_cell_length_b       4.106937292360725
_cell_length_c       17.10979291
_cell_angle_alpha    90.0
_cell_angle_beta     90.0
_cell_angle_gamma    90.0

_space_group_name_H-M_alt    "P 1"
_space_group_IT_number       1

loop_
  _space_group_symop_operation_xyz
  'x, y, z'

loop_
  _atom_site_type_symbol
  _atom_site_label
  _atom_site_symmetry_multiplicity
  _atom_site_fract_x
  _atom_site_fract_y
  _atom_site_fract_z
  _atom_site_occupancy
  Si  Si1       1.0  0.6329833430049773  0.4999108113597767  0.4318475528855447  1.0000
  Si  Si2       1.0  0.132976219522283  0.9999136527520526  0.5681521545252329  1.0000
  Te  Te1       1.0  0.5621130552383157  0.49990988640178335  0.5851449857199156  1.0000
  Te  Te2       1.0  0.06210185595796075  0.9999145655227678  0.41485542756024135  1.0000
