data_image0
_chemical_formula_structural       MnSe2
_chemical_formula_sum              "Mn1 Se2"
_cell_length_a       3.4941920757067066
_cell_length_b       3.4941920757067066
_cell_length_c       17.960415431689434
_cell_angle_alpha    90.0
_cell_angle_beta     90.0
_cell_angle_gamma    120.00000000000001

_space_group_name_H-M_alt    "P 1"
_space_group_IT_number       1

loop_
  _space_group_symop_operation_xyz
  'x, y, z'

loop_
  _atom_site_type_symbol
  _atom_site_label
  _atom_site_symmetry_multiplicity
  _atom_site_fract_x
  _atom_site_fract_y
  _atom_site_fract_z
  _atom_site_occupancy
  Mn  Mn1       1.0  0.0  0.0  0.5000000010463774  1.0000
  Se  Se1       1.0  0.6666666666666667  0.3333333333333334  0.5797278166776197  1.0000
  Se  Se2       1.0  0.3333333333333334  0.6666666666666669  0.4202721849194463  1.0000
