data_image0
_chemical_formula_structural       NiTe2
_chemical_formula_sum              "Ni1 Te2"
_cell_length_a       3.7834184943955957
_cell_length_b       3.7834184943955953
_cell_length_c       17.70430270140367
_cell_angle_alpha    90.0
_cell_angle_beta     90.0
_cell_angle_gamma    120.00000000000001

_space_group_name_H-M_alt    "P 1"
_space_group_IT_number       1

loop_
  _space_group_symop_operation_xyz
  'x, y, z'

loop_
  _atom_site_type_symbol
  _atom_site_label
  _atom_site_symmetry_multiplicity
  _atom_site_fract_x
  _atom_site_fract_y
  _atom_site_fract_z
  _atom_site_occupancy
  Ni  Ni1       1.0  1.4403634643510326e-19  2.8807275956467944e-19  0.5000000014389914  1.0000
  Te  Te1       1.0  0.6666666666666667  0.33333333333333337  0.5766335899769124  1.0000
  Te  Te2       1.0  0.33333333333333337  0.6666666666666667  0.4233664005707529  1.0000
