data_image0
_chemical_formula_structural       GaP
_chemical_formula_sum              "Ga1 P1"
_cell_length_a       3.925512994098959
_cell_length_b       3.925512994098959
_cell_length_c       15.438847203967498
_cell_angle_alpha    90.0
_cell_angle_beta     90.0
_cell_angle_gamma    120.00000000000001

_space_group_name_H-M_alt    "P 1"
_space_group_IT_number       1

loop_
  _space_group_symop_operation_xyz
  'x, y, z'

loop_
  _atom_site_type_symbol
  _atom_site_label
  _atom_site_symmetry_multiplicity
  _atom_site_fract_x
  _atom_site_fract_y
  _atom_site_fract_z
  _atom_site_occupancy
  Ga  Ga1       1.0  0.3333333333333333  0.6666666666666666  0.4857875656721726  1.0000
  P   P1        1.0  0.6666666666666666  0.3333333333333333  0.5142124343278274  1.0000
