data_image0
_chemical_formula_structural       MnS2
_chemical_formula_sum              "Mn1 S2"
_cell_length_a       3.349992622047122
_cell_length_b       3.349992622047122
_cell_length_c       17.77517072985769
_cell_angle_alpha    90.0
_cell_angle_beta     90.0
_cell_angle_gamma    120.00000000000001

_space_group_name_H-M_alt    "P 1"
_space_group_IT_number       1

loop_
  _space_group_symop_operation_xyz
  'x, y, z'

loop_
  _atom_site_type_symbol
  _atom_site_label
  _atom_site_symmetry_multiplicity
  _atom_site_fract_x
  _atom_site_fract_y
  _atom_site_fract_z
  _atom_site_occupancy
  Mn  Mn1       1.0  9.580172457814923e-18  1.9160344987134895e-17  0.5000000023243011  1.0000
  S   S1        1.0  0.6666666666666665  0.3333333333333333  0.5743032130936754  1.0000
  S   S2        1.0  0.33333333333333326  0.6666666666666666  0.42569678978093256  1.0000
