data_image0
_chemical_formula_structural       NiSe2
_chemical_formula_sum              "Ni1 Se2"
_cell_length_a       3.541747679882134
_cell_length_b       3.5417476798821337
_cell_length_c       17.487785445272443
_cell_angle_alpha    90.0
_cell_angle_beta     90.0
_cell_angle_gamma    120.00000000000001

_space_group_name_H-M_alt    "P 1"
_space_group_IT_number       1

loop_
  _space_group_symop_operation_xyz
  'x, y, z'

loop_
  _atom_site_type_symbol
  _atom_site_label
  _atom_site_symmetry_multiplicity
  _atom_site_fract_x
  _atom_site_fract_y
  _atom_site_fract_z
  _atom_site_occupancy
  Ni  Ni1       1.0  4.158425781401298e-20  8.316851518120218e-20  0.4999999999817396  1.0000
  Se  Se1       1.0  0.6666666666666665  0.3333333333333333  0.571212043834523  1.0000
  Se  Se2       1.0  0.3333333333333333  0.6666666666666666  0.42878795615975784  1.0000
