data_image0
_chemical_formula_structural       ScSe2
_chemical_formula_sum              "Sc1 Se2"
_cell_length_a       3.8672739188023764
_cell_length_b       3.8672739188023764
_cell_length_c       18.0238413230799
_cell_angle_alpha    90.0
_cell_angle_beta     90.0
_cell_angle_gamma    120.00000000000001

_space_group_name_H-M_alt    "P 1"
_space_group_IT_number       1

loop_
  _space_group_symop_operation_xyz
  'x, y, z'

loop_
  _atom_site_type_symbol
  _atom_site_label
  _atom_site_symmetry_multiplicity
  _atom_site_fract_x
  _atom_site_fract_y
  _atom_site_fract_z
  _atom_site_occupancy
  Sc  Sc1       1.0  0.0  0.0  0.49999999920104177  1.0000
  Se  Se1       1.0  0.6666666666666666  0.33333333333333337  0.5823343953929218  1.0000
  Se  Se2       1.0  0.33333333333333337  0.6666666666666667  0.4176656033495076  1.0000
