data_image0
_chemical_formula_structural       AlO2Al
_chemical_formula_sum              "Al2 O2"
_cell_length_a       2.983442957554019
_cell_length_b       2.983452703945475
_cell_length_c       20.807299721384197
_cell_angle_alpha    90.0
_cell_angle_beta     90.0
_cell_angle_gamma    120.00258071784839

_space_group_name_H-M_alt    "P 1"
_space_group_IT_number       1

loop_
  _space_group_symop_operation_xyz
  'x, y, z'

loop_
  _atom_site_type_symbol
  _atom_site_label
  _atom_site_symmetry_multiplicity
  _atom_site_fract_x
  _atom_site_fract_y
  _atom_site_fract_z
  _atom_site_occupancy
  Al  Al1       1.0  0.3333135547397242  0.6666762082803669  0.5631951607818877  1.0000
  O   O1        1.0  0.6666571664375361  0.3333332484346272  0.40465673743467684  1.0000
  O   O2        1.0  8.615221448107283e-06  9.633910189577272e-07  0.5953438189308979  1.0000
  Al  Al2       1.0  0.3333525600924719  0.666657675481431  0.43680529099981047  1.0000
