data_image0
_chemical_formula_structural       AlTe2Al
_chemical_formula_sum              "Al2 Te2"
_cell_length_a       4.13229640314898
_cell_length_b       4.13214775010459
_cell_length_c       20.807299721384197
_cell_angle_alpha    90.0
_cell_angle_beta     90.0
_cell_angle_gamma    120.001190133633

_space_group_name_H-M_alt    "P 1"
_space_group_IT_number       1

loop_
  _space_group_symop_operation_xyz
  'x, y, z'

loop_
  _atom_site_type_symbol
  _atom_site_label
  _atom_site_symmetry_multiplicity
  _atom_site_fract_x
  _atom_site_fract_y
  _atom_site_fract_z
  _atom_site_occupancy
  Al  Al1       1.0  0.3333330526779507  0.6666707124888551  0.5615835411386396  1.0000
  Te  Te1       1.0  0.6666776546566382  0.33333849502547475  0.3774461348414119  1.0000
  Te  Te2       1.0  0.9999890136179641  0.9999948388830887  0.6225546294119763  1.0000
  Al  Al2       1.0  0.33333361746541823  0.6666626210320514  0.43841569774588784  1.0000
