data_image0
_chemical_formula_structural       Bi2
_chemical_formula_sum              "Bi2"
_cell_length_a       4.336856727568213
_cell_length_b       4.336851789362242
_cell_length_c       16.74638958
_cell_angle_alpha    90.0
_cell_angle_beta     90.0
_cell_angle_gamma    120.00003758964948

_space_group_name_H-M_alt    "P 1"
_space_group_IT_number       1

loop_
  _space_group_symop_operation_xyz
  'x, y, z'

loop_
  _atom_site_type_symbol
  _atom_site_label
  _atom_site_symmetry_multiplicity
  _atom_site_fract_x
  _atom_site_fract_y
  _atom_site_fract_z
  _atom_site_occupancy
  Bi  Bi1       1.0  0.6666666869281564  0.3333333363021443  0.4483518945723218  1.0000
  Bi  Bi2       1.0  0.33333331307184155  0.6666666636978532  0.5516481054275623  1.0000
