data_image0
_chemical_formula_structural       AlSb
_chemical_formula_sum              "Al1 Sb1"
_cell_length_a       4.393553136547955
_cell_length_b       4.393553136547955
_cell_length_c       15.62051068548627
_cell_angle_alpha    90.0
_cell_angle_beta     90.0
_cell_angle_gamma    120.00000000000001

_space_group_name_H-M_alt    "P 1"
_space_group_IT_number       1

loop_
  _space_group_symop_operation_xyz
  'x, y, z'

loop_
  _atom_site_type_symbol
  _atom_site_label
  _atom_site_symmetry_multiplicity
  _atom_site_fract_x
  _atom_site_fract_y
  _atom_site_fract_z
  _atom_site_occupancy
  Al  Al1       1.0  0.33333333333333326  0.6666666666666665  0.4801379513775175  1.0000
  Sb  Sb1       1.0  0.6666666666666666  0.33333333333333326  0.5198620486224824  1.0000
