data_image0
_chemical_formula_structural       GaAs
_chemical_formula_sum              "Ga1 As1"
_cell_length_a       4.0613666458270785
_cell_length_b       4.0613666458270785
_cell_length_c       15.601865174699068
_cell_angle_alpha    90.0
_cell_angle_beta     90.0
_cell_angle_gamma    120.00000000000001

_space_group_name_H-M_alt    "P 1"
_space_group_IT_number       1

loop_
  _space_group_symop_operation_xyz
  'x, y, z'

loop_
  _atom_site_type_symbol
  _atom_site_label
  _atom_site_symmetry_multiplicity
  _atom_site_fract_x
  _atom_site_fract_y
  _atom_site_fract_z
  _atom_site_occupancy
  Ga  Ga1       1.0  0.3333333333333333  0.6666666666666666  0.48071175567921554  1.0000
  As  As1       1.0  0.6666666666666667  0.3333333333333333  0.5192882443207844  1.0000
