data_image0
_chemical_formula_structural       P2
_chemical_formula_sum              "P2"
_cell_length_a       3.2849051280657457
_cell_length_b       3.2849051280657484
_cell_length_c       31.149557807782063
_cell_angle_alpha    90.0
_cell_angle_beta     90.0
_cell_angle_gamma    119.99999999999999

_space_group_name_H-M_alt    "P 1"
_space_group_IT_number       1

loop_
  _space_group_symop_operation_xyz
  'x, y, z'

loop_
  _atom_site_type_symbol
  _atom_site_label
  _atom_site_symmetry_multiplicity
  _atom_site_fract_x
  _atom_site_fract_y
  _atom_site_fract_z
  _atom_site_occupancy
  P   P1        1.0  3.2329168843494455e-16  2.2112439423439605e-16  0.4800434115893093  1.0000
  P   P2        1.0  0.3333333333333332  0.6666666666666664  0.5199565884106907  1.0000
