data_image0
_chemical_formula_structural       SB
_chemical_formula_sum              "S1 B1"
_cell_length_a       3.0372233393186776
_cell_length_b       3.037242826172854
_cell_length_c       15.000443154932002
_cell_angle_alpha    90.0
_cell_angle_beta     90.0
_cell_angle_gamma    111.45537491473198

_space_group_name_H-M_alt    "P 1"
_space_group_IT_number       1

loop_
  _space_group_symop_operation_xyz
  'x, y, z'

loop_
  _atom_site_type_symbol
  _atom_site_label
  _atom_site_symmetry_multiplicity
  _atom_site_fract_x
  _atom_site_fract_y
  _atom_site_fract_z
  _atom_site_occupancy
  S   S1        1.0  0.6809759823652028  0.3190241573567482  0.5000137739392991  1.0000
  B   B1        1.0  0.31903484644781416  0.6809740354197493  0.49998564326257083  1.0000
