data_image0
_chemical_formula_structural       MnO2
_chemical_formula_sum              "Mn1 O2"
_cell_length_a       2.6673609678419243
_cell_length_b       2.6673609678419243
_cell_length_c       17.23987543714651
_cell_angle_alpha    90.0
_cell_angle_beta     90.0
_cell_angle_gamma    120.00000000000001

_space_group_name_H-M_alt    "P 1"
_space_group_IT_number       1

loop_
  _space_group_symop_operation_xyz
  'x, y, z'

loop_
  _atom_site_type_symbol
  _atom_site_label
  _atom_site_symmetry_multiplicity
  _atom_site_fract_x
  _atom_site_fract_y
  _atom_site_fract_z
  _atom_site_occupancy
  Mn  Mn1       1.0  5.202746178715958e-20  0.0  0.5000000060176715  1.0000
  O   O1        1.0  0.6666666666666667  0.33333333333333326  0.5659471012556648  1.0000
  O   O2        1.0  0.6666666666666667  0.33333333333333326  0.4340528885630066  1.0000
