data_image0
_chemical_formula_structural       ScS2
_chemical_formula_sum              "Sc1 S2"
_cell_length_a       3.787811531031907
_cell_length_b       3.787811531031907
_cell_length_c       17.71762839728125
_cell_angle_alpha    90.0
_cell_angle_beta     90.0
_cell_angle_gamma    120.00000000000001

_space_group_name_H-M_alt    "P 1"
_space_group_IT_number       1

loop_
  _space_group_symop_operation_xyz
  'x, y, z'

loop_
  _atom_site_type_symbol
  _atom_site_label
  _atom_site_symmetry_multiplicity
  _atom_site_fract_x
  _atom_site_fract_y
  _atom_site_fract_z
  _atom_site_occupancy
  Sc  Sc1       1.0  1.3874794784780736e-19  1.4381902033186375e-20  0.4999999999999983  1.0000
  S   S1        1.0  0.6666666666666669  0.3333333333333333  0.5767589119524773  1.0000
  S   S2        1.0  0.6666666666666669  0.3333333333333333  0.4232410880475406  1.0000
