data_image0
_chemical_formula_structural       MnTe2
_chemical_formula_sum              "Mn1 Te2"
_cell_length_a       3.7353694008179317
_cell_length_b       3.7353694008179317
_cell_length_c       18.184775751037638
_cell_angle_alpha    90.0
_cell_angle_beta     90.0
_cell_angle_gamma    120.00000000000001

_space_group_name_H-M_alt    "P 1"
_space_group_IT_number       1

loop_
  _space_group_symop_operation_xyz
  'x, y, z'

loop_
  _atom_site_type_symbol
  _atom_site_label
  _atom_site_symmetry_multiplicity
  _atom_site_fract_x
  _atom_site_fract_y
  _atom_site_fract_z
  _atom_site_occupancy
  Mn  Mn1       1.0  5.1234440848344855e-18  1.0246888179787448e-17  0.5000000009970343  1.0000
  Te  Te1       1.0  0.6666666666666667  0.3333333333333333  0.5862029747536533  1.0000
  Te  Te2       1.0  0.33333333333333337  0.6666666666666666  0.41379702462932205  1.0000
