data_image0
_chemical_formula_structural       NiS2
_chemical_formula_sum              "Ni1 S2"
_cell_length_a       3.353644085388141
_cell_length_b       3.353644085388141
_cell_length_c       17.350867856450513
_cell_angle_alpha    90.0
_cell_angle_beta     90.0
_cell_angle_gamma    120.00000000000001

_space_group_name_H-M_alt    "P 1"
_space_group_IT_number       1

loop_
  _space_group_symop_operation_xyz
  'x, y, z'

loop_
  _atom_site_type_symbol
  _atom_site_label
  _atom_site_symmetry_multiplicity
  _atom_site_fract_x
  _atom_site_fract_y
  _atom_site_fract_z
  _atom_site_occupancy
  Ni  Ni1       1.0  0.0  0.0  0.5  1.0000
  S   S1        1.0  0.6666666666666667  0.3333333333333333  0.5677449645718019  1.0000
  S   S2        1.0  0.33333333333333337  0.6666666666666666  0.4322550354281981  1.0000
