data_image0
_chemical_formula_structural       TcSe2
_chemical_formula_sum              "Tc1 Se2"
_cell_length_a       3.1543
_cell_length_b       3.1543
_cell_length_c       106
_cell_angle_alpha    90.0
_cell_angle_beta     90.0
_cell_angle_gamma    120.00000000000001

_space_group_name_H-M_alt    "P 1"
_space_group_IT_number       1

loop_
  _space_group_symop_operation_xyz
  'x, y, z'

loop_
  _atom_site_type_symbol
  _atom_site_label
  _atom_site_symmetry_multiplicity
  _atom_site_fract_x
  _atom_site_fract_y
  _atom_site_fract_z
  _atom_site_occupancy
  Tc  Tc1       1.0  0.0  0.0                                  0.5  1.0000
  Se   Se1        1.0  0.6666666666666666  0.3333333333333333   0.5162415094339623  1.0000
  Se   Se2        1.0  0.33333333333333326  0.6666666666666666  0.4837584905660377  1.0000
 