data_image0
_chemical_formula_structural       VS2
_chemical_formula_sum              "V1 S2"
_cell_length_a       3.1952962337383144
_cell_length_b       3.1952962337383144
_cell_length_c       17.944437597054378
_cell_angle_alpha    90.0
_cell_angle_beta     90.0
_cell_angle_gamma    120.00000000000001

_space_group_name_H-M_alt    "P 1"
_space_group_IT_number       1

loop_
  _space_group_symop_operation_xyz
  'x, y, z'

loop_
  _atom_site_type_symbol
  _atom_site_label
  _atom_site_symmetry_multiplicity
  _atom_site_fract_x
  _atom_site_fract_y
  _atom_site_fract_z
  _atom_site_occupancy
  V   V1        1.0  3.323532409516898e-20  6.647063228446728e-20  0.4999999980484022  1.0000
  S   S1        1.0  0.6666666666666667  0.33333333333333337  0.5819856348930948  1.0000
  S   S2        1.0  0.33333333333333337  0.6666666666666667  0.4180143648339682  1.0000
