data_image0
_chemical_formula_structural        B12
_chemical_formula_sum              "B12"
_cell_length_a       5.732
_cell_length_b       4.842
_cell_length_c       110.0
_cell_angle_alpha    90.0
_cell_angle_beta     90.0
_cell_angle_gamma    90.0

_space_group_name_H-M_alt    "P 1"
_space_group_IT_number       1

loop_
  _space_group_symop_operation_xyz
  'x, y, z'

loop_
  _atom_site_type_symbol
  _atom_site_label
  _atom_site_symmetry_multiplicity
  _atom_site_fract_x
  _atom_site_fract_y
  _atom_site_fract_z
  _atom_site_occupancy
  B  B1       1.0  0.05233775471039776  0.061957870714580754  0.5027272728181817  1.0000
  B  B2       1.0  0.30233775471039775  0.2286245435770343  0.5110090909999999  1.0000
  B  B3       1.0  0.5523377547103977  0.061957870714580754  0.5027272728181817  1.0000
  B  B4       1.0  0.8023377547103978  0.2286245435770343  0.5110090909999999  1.0000
  B  B5       1.0  0.05233775471039776  0.39529121437422554  0.5027272728181817  1.0000
  B  B6       1.0  0.30233775471039775  0.5619578707145808  0.5110090909999999  1.0000
  B  B7       1.0  0.5523377547103977  0.39529121437422554  0.5027272728181817  1.0000
  B  B8       1.0  0.8023377547103978  0.5619578707145808  0.5110090909999999  1.0000
  B  B9       1.0  0.05233775471039776  0.7286245580338703  0.5027272728181817  1.0000
  B  B10       1.0  0.30233775471039775  0.8952911854605534  0.5110090909999999  1.0000
  B  B11       1.0  0.5523377547103977  0.7286245580338703  0.5027272728181817  1.0000
  B  B12       1.0  0.8023377547103978  0.8952911854605534  0.5110090909999999  1.0000
