data_image0
_chemical_formula_structural       GaTe2Ga
_chemical_formula_sum              "Ga2 Te2"
_cell_length_a       4.1484785786656655
_cell_length_b       4.148540873519473
_cell_length_c       20.807299721384197
_cell_angle_alpha    90.0
_cell_angle_beta     90.0
_cell_angle_gamma    119.99950336390195

_space_group_name_H-M_alt    "P 1"
_space_group_IT_number       1

loop_
  _space_group_symop_operation_xyz
  'x, y, z'

loop_
  _atom_site_type_symbol
  _atom_site_label
  _atom_site_symmetry_multiplicity
  _atom_site_fract_x
  _atom_site_fract_y
  _atom_site_fract_z
  _atom_site_occupancy
  Ga  Ga1       1.0  0.3333293663471911  0.6666682379171104    0.5592431097130485  1.0000
  Te  Te1       1.0  0.6666715510489981  0.3333283579191639    0.38012180014593216  1.0000
  Te  Te2       1.0  0.9999951140726929  4.981106326109229e-06  0.6198767807280087  1.0000
  Ga  Ga2       1.0  0.3333373033014148  0.6666650960233883    0.4407560517835299  1.0000
