data_image0
_chemical_formula_structural       ScTe2
_chemical_formula_sum              "Sc1 Te2"
_cell_length_a       3.827613998426659
_cell_length_b       3.827613998426659
_cell_length_c       18.8240482812662
_cell_angle_alpha    90.0
_cell_angle_beta     90.0
_cell_angle_gamma    120.00000000000001

_space_group_name_H-M_alt    "P 1"
_space_group_IT_number       1

loop_
  _space_group_symop_operation_xyz
  'x, y, z'

loop_
  _atom_site_type_symbol
  _atom_site_label
  _atom_site_symmetry_multiplicity
  _atom_site_fract_x
  _atom_site_fract_y
  _atom_site_fract_z
  _atom_site_occupancy
  Sc  Sc1       1.0  1.1233987228497106e-19  2.2467974415523404e-19  0.5000000000006339  1.0000
  Te  Te1       1.0  0.6666666666666665  0.3333333333333333  0.6008961040741567  1.0000
  Te  Te2       1.0  0.33333333333333326  0.6666666666666666  0.3991038959268651  1.0000
