data_image0
_chemical_formula_structural       ScO2
_chemical_formula_sum              "Sc1 O2"
_cell_length_a       3.2770836362746576
_cell_length_b       3.277083636274657
_cell_length_c       16.874715344550594
_cell_angle_alpha    90.0
_cell_angle_beta     90.0
_cell_angle_gamma    120.00000000000001

_space_group_name_H-M_alt    "P 1"
_space_group_IT_number       1

loop_
  _space_group_symop_operation_xyz
  'x, y, z'

loop_
  _atom_site_type_symbol
  _atom_site_label
  _atom_site_symmetry_multiplicity
  _atom_site_fract_x
  _atom_site_fract_y
  _atom_site_fract_z
  _atom_site_occupancy
  Sc  Sc1       1.0  0.0  0.0  0.4999999986826983  1.0000
  O   O1        1.0  0.6666666666666667  0.33333333333333326  0.5555450342243783  1.0000
  O   O2        1.0  0.33333333333333326  0.6666666666666665  0.44445496077058866  1.0000
