data_image0
_chemical_formula_structural       ScS2
_chemical_formula_sum              "Sc1 S2"
_cell_length_a       3.743844099386503
_cell_length_b       3.743844099386503
_cell_length_c       17.743450268994234
_cell_angle_alpha    90.0
_cell_angle_beta     90.0
_cell_angle_gamma    120.00000000000001

_space_group_name_H-M_alt    "P 1"
_space_group_IT_number       1

loop_
  _space_group_symop_operation_xyz
  'x, y, z'

loop_
  _atom_site_type_symbol
  _atom_site_label
  _atom_site_symmetry_multiplicity
  _atom_site_fract_x
  _atom_site_fract_y
  _atom_site_fract_z
  _atom_site_occupancy
  Sc  Sc1       1.0  5.388002951391332e-19  1.0776005935795567e-18  0.4999999999493031  1.0000
  S   S1        1.0  0.6666666666666664  0.3333333333333333  0.5764826862842253  1.0000
  S   S2        1.0  0.3333333333333333  0.6666666666666666  0.4235173137092882  1.0000
