data_image0
_chemical_formula_structural       SnSe2
_chemical_formula_sum              "Sn1 Se2"
_cell_length_a       3.864841015994623
_cell_length_b       3.864841015994623
_cell_length_c       18.182582879749866
_cell_angle_alpha    90.0
_cell_angle_beta     90.0
_cell_angle_gamma    120.00000000000001

_space_group_name_H-M_alt    "P 1"
_space_group_IT_number       1

loop_
  _space_group_symop_operation_xyz
  'x, y, z'

loop_
  _atom_site_type_symbol
  _atom_site_label
  _atom_site_symmetry_multiplicity
  _atom_site_fract_x
  _atom_site_fract_y
  _atom_site_fract_z
  _atom_site_occupancy
  Sn  Sn1       1.0  1.0813144438230003e-32  2.1626288876460004e-32  0.500000000000001  1.0000
  Se  Se1       1.0  0.6666666666666666  0.3333333333333333  0.5876075214456076  1.0000
  Se  Se2       1.0  0.3333333333333333  0.6666666666666666  0.41239247855439104  1.0000
